<?xml version="1.0" encoding="UTF-8"?>

<!-- generated on 2026-01-29 12:18:16 by Eclipse SUMO netconvert Version 1.18.0
<configuration xmlns:xsi="http://www.w3.org/2001/XMLSchema-instance" xsi:noNamespaceSchemaLocation="http://sumo.dlr.de/xsd/netconvertConfiguration.xsd">

    <input>
        <osm-files value="map.osm"/>
    </input>

    <output>
        <output-file value="examen.net.xml"/>
    </output>

    <projection>
        <proj.utm value="true"/>
    </projection>

</configuration>
-->

<net version="1.16" junctionCornerDetail="5" limitTurnSpeed="5.50" xmlns:xsi="http://www.w3.org/2001/XMLSchema-instance" xsi:noNamespaceSchemaLocation="http://sumo.dlr.de/xsd/net_file.xsd">

    <location netOffset="-720791.05,321007.66" convBoundary="0.00,0.00,1891.01,986.68" origBoundary="-79.013689,-2.902459,-78.996677,-2.893557" projParameter="+proj=utm +zone=17 +ellps=WGS84 +datum=WGS84 +units=m +no_defs"/>

    <type id="highway.footway" priority="1" numLanes="1" speed="2.78" allow="pedestrian" oneway="1" width="2.00"/>
    <type id="highway.path" priority="1" numLanes="1" speed="5.56" allow="pedestrian bicycle" oneway="0" width="2.00"/>
    <type id="highway.pedestrian" priority="1" numLanes="1" speed="2.78" allow="pedestrian" oneway="1" width="2.00"/>
    <type id="highway.residential" priority="3" numLanes="1" speed="13.89" disallow="tram rail_urban rail rail_electric rail_fast ship" oneway="0"/>
    <type id="highway.service" priority="1" numLanes="1" speed="5.56" allow="pedestrian delivery bicycle" oneway="0"/>
    <type id="railway.tram" priority="17" numLanes="1" speed="13.89" allow="tram" oneway="1"/>

    <edge id=":10710987852_0" function="internal">
        <lane id=":10710987852_0_0" index="0" allow="pedestrian delivery bicycle" speed="3.65" length="4.67" shape="1014.80,326.07 1013.48,325.49 1012.95,324.77 1013.21,323.91 1014.25,322.91"/>
    </edge>
    <edge id=":10710987853_0" function="internal">
        <lane id=":10710987853_0_0" index="0" disallow="tram rail_urban rail rail_electric rail_fast ship" speed="8.33" length="9.40" shape="1031.88,316.65 1033.68,325.88"/>
    </edge>
    <edge id=":10710987853_1" function="internal">
        <lane id=":10710987853_1_0" index="0" allow="pedestrian delivery bicycle" speed="6.06" length="7.81" shape="1031.88,316.65 1032.21,319.40 1032.00,321.45 1031.24,322.79 1029.94,323.42"/>
    </edge>
    <edge id=":10710987853_2" function="internal">
        <lane id=":10710987853_2_0" index="0" allow="pedestrian delivery bicycle" speed="6.13" length="7.79" shape="1029.39,320.26 1030.81,320.41 1032.00,321.40 1032.96,323.22 1033.68,325.88"/>
    </edge>
    <edge id=":10710987853_3" function="internal">
        <lane id=":10710987853_3_0" index="0" allow="pedestrian delivery bicycle" speed="3.65" length="4.67" shape="1029.39,320.26 1030.71,320.85 1031.24,321.56 1030.99,322.42 1029.94,323.42"/>
    </edge>
    <edge id=":10778577906_0" function="internal">
        <lane id=":10778577906_0_0" index="0" disallow="tram rail_urban rail rail_electric rail_fast ship" speed="8.33" length="7.73" shape="1052.07,430.18 1053.27,437.82"/>
    </edge>
    <edge id=":10778577906_1" function="internal">
        <lane id=":10778577906_1_0" index="0" allow="pedestrian delivery bicycle" speed="6.12" length="7.78" shape="1052.07,430.18 1052.31,432.93 1052.03,434.97 1051.25,436.29 1049.97,436.91"/>
    </edge>
    <edge id=":10778577906_2" function="internal">
        <lane id=":10778577906_2_0" index="0" allow="pedestrian delivery bicycle" speed="5.54" length="6.33" shape="1049.42,433.76 1050.84,433.81 1051.95,434.51 1052.76,435.84 1053.27,437.82"/>
    </edge>
    <edge id=":10778577906_3" function="internal">
        <lane id=":10778577906_3_0" index="0" allow="pedestrian delivery bicycle" speed="3.65" length="4.67" shape="1049.42,433.76 1050.74,434.35 1051.27,435.07 1051.01,435.92 1049.97,436.91"/>
    </edge>
    <edge id=":10866331302_0" function="internal">
        <lane id=":10866331302_0_0" index="0" disallow="tram rail_urban rail rail_electric rail_fast ship" speed="8.33" length="9.38" shape="1164.05,405.49 1162.31,396.28"/>
    </edge>
    <edge id=":10866331302_1" function="internal">
        <lane id=":10866331302_1_0" index="0" allow="pedestrian delivery bicycle" speed="6.04" length="7.86" shape="1164.05,405.49 1163.76,402.73 1164.01,400.68 1164.82,399.36 1166.17,398.77"/>
    </edge>
    <edge id=":10866331302_2" function="internal">
        <lane id=":10866331302_2_0" index="0" allow="pedestrian delivery bicycle" speed="6.21" length="7.81" shape="1166.62,401.94 1165.18,401.75 1163.99,400.74 1163.03,398.92 1162.31,396.28"/>
    </edge>
    <edge id=":10866331302_3" function="internal">
        <lane id=":10866331302_3_0" index="0" allow="pedestrian delivery bicycle" speed="3.65" length="4.67" shape="1166.62,401.94 1165.32,401.32 1164.81,400.58 1165.09,399.73 1166.17,398.77"/>
    </edge>
    <edge id=":10866331303_0" function="internal">
        <lane id=":10866331303_0_0" index="0" allow="pedestrian delivery bicycle" speed="3.65" length="4.67" shape="1186.88,395.82 1188.18,396.44 1188.69,397.18 1188.41,398.03 1187.33,398.99"/>
    </edge>
    <edge id=":10940012542_0" function="internal">
        <lane id=":10940012542_0_0" index="0" allow="pedestrian delivery bicycle" speed="5.06" length="5.02" shape="1117.67,758.30 1116.37,758.78 1115.54,759.56 1115.17,760.63 1115.26,761.99"/>
    </edge>
    <edge id=":10940012542_1" function="internal">
        <lane id=":10940012542_1_0" index="0" allow="pedestrian delivery bicycle" speed="3.65" length="4.67" shape="1117.67,758.30 1116.33,757.78 1115.76,757.08 1115.98,756.21 1116.99,755.18"/>
    </edge>
    <edge id=":10940012542_2" function="internal">
        <lane id=":10940012542_2_0" index="0" allow="pedestrian delivery bicycle" speed="5.03" length="5.01" shape="1113.30,752.80 1113.78,754.09 1114.55,754.91 1115.62,755.28 1116.99,755.18"/>
    </edge>
    <edge id=":10940012542_3" function="internal">
        <lane id=":10940012542_3_0" index="0" disallow="tram rail_urban rail rail_electric rail_fast ship" speed="8.33" length="9.40" shape="1113.30,752.80 1115.26,761.99"/>
    </edge>
    <edge id=":10940012543_0" function="internal">
        <lane id=":10940012543_0_0" index="0" allow="pedestrian delivery bicycle" speed="3.65" length="4.67" shape="1131.34,752.39 1132.67,752.96 1133.21,753.67 1132.96,754.53 1131.93,755.54"/>
    </edge>
    <edge id=":10995781337_0" function="internal">
        <lane id=":10995781337_0_0" index="0" allow="pedestrian delivery bicycle" speed="3.65" length="4.67" shape="1251.91,468.26 1251.41,469.62 1250.73,470.20 1249.86,470.00 1248.80,469.02"/>
    </edge>
    <edge id=":11070812717_0" function="internal">
        <lane id=":11070812717_0_0" index="0" allow="pedestrian delivery bicycle" speed="3.65" length="4.67" shape="1244.92,713.29 1243.57,712.80 1242.99,712.12 1243.18,711.25 1244.16,710.19"/>
    </edge>
    <edge id=":11070812719_0" function="internal">
        <lane id=":11070812719_0_0" index="0" allow="pedestrian delivery bicycle" speed="3.65" length="4.67" shape="1312.51,361.50 1312.03,362.86 1311.36,363.45 1310.48,363.27 1309.41,362.31"/>
    </edge>
    <edge id=":11070812720_0" function="internal">
        <lane id=":11070812720_0_0" index="0" allow="pedestrian delivery bicycle" speed="5.06" length="5.03" shape="1299.07,322.51 1298.54,321.23 1297.73,320.43 1296.65,320.10 1295.29,320.24"/>
    </edge>
    <edge id=":11070812720_1" function="internal">
        <lane id=":11070812720_1_0" index="0" allow="pedestrian delivery bicycle" speed="3.65" length="4.67" shape="1299.07,322.51 1299.55,321.15 1300.22,320.56 1301.10,320.75 1302.17,321.71"/>
    </edge>
    <edge id=":11070812720_2" function="internal">
        <lane id=":11070812720_2_0" index="0" allow="pedestrian delivery bicycle" speed="5.03" length="5.01" shape="1304.41,317.94 1303.13,318.46 1302.34,319.26 1302.02,320.34 1302.17,321.71"/>
    </edge>
    <edge id=":11070812720_3" function="internal">
        <lane id=":11070812720_3_0" index="0" disallow="tram rail_urban rail rail_electric rail_fast ship" speed="11.11" length="9.40" shape="1304.41,317.94 1295.29,320.24"/>
        <lane id=":11070812720_3_1" index="1" disallow="tram rail_urban rail rail_electric rail_fast ship" speed="11.11" length="9.40" shape="1303.62,314.83 1294.51,317.13"/>
    </edge>
    <edge id=":11309760778_0" function="internal">
        <lane id=":11309760778_0_0" index="0" allow="pedestrian delivery bicycle" speed="3.65" length="4.67" shape="1023.42,441.49 1022.10,440.90 1021.57,440.18 1021.83,439.32 1022.88,438.33"/>
    </edge>
    <edge id=":11675663220_0" function="internal">
        <lane id=":11675663220_0_0" index="0" allow="pedestrian delivery bicycle" speed="3.65" length="4.67" shape="1327.16,690.25 1328.50,690.78 1329.06,691.48 1328.84,692.35 1327.83,693.38"/>
    </edge>
    <edge id=":11675663221_0" function="internal">
        <lane id=":11675663221_0_0" index="0" allow="pedestrian delivery bicycle" speed="5.56" length="0.21" shape="1314.40,696.27 1314.19,696.31"/>
    </edge>
    <edge id=":11675663221_1" function="internal">
        <lane id=":11675663221_1_0" index="0" allow="pedestrian delivery bicycle" speed="5.56" length="0.30" shape="1313.43,693.21 1313.72,693.14"/>
    </edge>
    <edge id=":12013799485_0" function="internal">
        <lane id=":12013799485_0_0" index="0" disallow="tram rail_urban rail rail_electric rail_fast ship" speed="8.33" length="4.93" shape="974.75,513.66 979.46,512.32"/>
        <lane id=":12013799485_0_1" index="1" disallow="tram rail_urban rail rail_electric rail_fast ship" speed="8.33" length="4.93" shape="975.59,516.75 980.37,515.39"/>
    </edge>
    <edge id=":12013799521_0" function="internal">
        <lane id=":12013799521_0_0" index="0" disallow="tram rail_urban rail rail_electric rail_fast ship" speed="8.33" length="4.99" shape="1074.11,547.34 1075.06,552.23"/>
        <lane id=":12013799521_0_1" index="1" disallow="tram rail_urban rail rail_electric rail_fast ship" speed="8.33" length="4.99" shape="1070.97,547.95 1071.92,552.85"/>
    </edge>
    <edge id=":12013799523_0" function="internal">
        <lane id=":12013799523_0_0" index="0" disallow="tram rail_urban rail rail_electric rail_fast ship" speed="8.33" length="5.01" shape="969.10,532.82 968.15,527.90"/>
        <lane id=":12013799523_0_1" index="1" disallow="tram rail_urban rail rail_electric rail_fast ship" speed="8.33" length="5.01" shape="972.24,532.21 971.29,527.29"/>
    </edge>
    <edge id=":12013799524_0" function="internal">
        <lane id=":12013799524_0_0" index="0" disallow="tram rail_urban rail rail_electric rail_fast ship" speed="8.33" length="5.00" shape="976.89,573.19 975.94,568.28"/>
        <lane id=":12013799524_0_1" index="1" disallow="tram rail_urban rail rail_electric rail_fast ship" speed="8.33" length="5.00" shape="980.03,572.58 979.08,567.67"/>
    </edge>
    <edge id=":12013799525_0" function="internal">
        <lane id=":12013799525_0_0" index="0" disallow="tram rail_urban rail rail_electric rail_fast ship" speed="8.33" length="3.71" shape="1051.46,491.83 1055.04,490.86"/>
        <lane id=":12013799525_0_1" index="1" disallow="tram rail_urban rail rail_electric rail_fast ship" speed="8.33" length="3.71" shape="1052.29,494.92 1055.87,493.95"/>
    </edge>
    <edge id=":12013799526_0" function="internal">
        <lane id=":12013799526_0_0" index="0" disallow="tram rail_urban rail rail_electric rail_fast ship" speed="8.33" length="4.69" shape="1064.54,497.65 1065.42,502.26"/>
        <lane id=":12013799526_0_1" index="1" disallow="tram rail_urban rail rail_electric rail_fast ship" speed="8.33" length="4.69" shape="1061.39,498.26 1062.28,502.86"/>
    </edge>
    <edge id=":12013799527_0" function="internal">
        <lane id=":12013799527_0_0" index="0" disallow="tram rail_urban rail rail_electric rail_fast ship" speed="8.33" length="4.05" shape="1077.14,602.76 1073.21,603.76"/>
        <lane id=":12013799527_0_1" index="1" disallow="tram rail_urban rail rail_electric rail_fast ship" speed="8.33" length="4.05" shape="1076.35,599.66 1072.42,600.66"/>
    </edge>
    <edge id=":12013799528_0" function="internal">
        <lane id=":12013799528_0_0" index="0" disallow="tram rail_urban rail rail_electric rail_fast ship" speed="8.33" length="3.42" shape="1082.58,590.55 1083.24,593.90"/>
        <lane id=":12013799528_0_1" index="1" disallow="tram rail_urban rail rail_electric rail_fast ship" speed="8.33" length="3.42" shape="1079.44,591.16 1080.10,594.52"/>
    </edge>
    <edge id=":12013799529_0" function="internal">
        <lane id=":12013799529_0_0" index="0" disallow="tram rail_urban rail rail_electric rail_fast ship" speed="8.33" length="2.74" shape="996.52,623.36 993.86,624.04"/>
        <lane id=":12013799529_0_1" index="1" disallow="tram rail_urban rail rail_electric rail_fast ship" speed="8.33" length="2.74" shape="995.73,620.26 993.07,620.94"/>
    </edge>
    <edge id=":12013799530_0" function="internal">
        <lane id=":12013799530_0_0" index="0" disallow="tram rail_urban rail rail_electric rail_fast ship" speed="8.33" length="3.54" shape="985.56,618.09 984.89,614.62"/>
        <lane id=":12013799530_0_1" index="1" disallow="tram rail_urban rail rail_electric rail_fast ship" speed="8.33" length="3.54" shape="988.71,617.48 988.03,614.01"/>
    </edge>
    <edge id=":13155810165_0" function="internal">
        <lane id=":13155810165_0_0" index="0" allow="pedestrian bicycle" speed="4.42" length="4.04" width="2.00" shape="1095.83,570.77 1095.47,569.72 1094.86,569.04 1094.00,568.74 1092.89,568.81"/>
    </edge>
    <edge id=":13155810165_1" function="internal">
        <lane id=":13155810165_1_0" index="0" allow="pedestrian bicycle" speed="5.56" length="6.82" width="2.00" shape="1095.83,570.77 1095.66,568.84 1095.95,567.19 1096.70,565.81 1097.91,564.69"/>
    </edge>
    <edge id=":13155810165_2" function="internal">
        <lane id=":13155810165_2_0" index="0" allow="pedestrian bicycle" speed="2.89" length="2.92" width="2.00" shape="1095.83,570.77 1096.18,569.94 1096.62,569.60 1097.16,569.75 1097.79,570.39"/>
    </edge>
    <edge id=":13155810165_3" function="internal">
        <lane id=":13155810165_3_0" index="0" allow="pedestrian bicycle" speed="5.49" length="4.49" width="2.00" shape="1099.03,566.35 1098.29,567.05 1097.83,567.96 1097.67,569.08 1097.79,570.39"/>
    </edge>
    <edge id=":13155810165_4" function="internal">
        <lane id=":13155810165_4_0" index="0" allow="pedestrian bicycle" speed="5.56" length="6.70" width="2.00" shape="1099.03,566.35 1097.37,567.42 1096.15,568.02 1094.83,568.40 1092.89,568.81"/>
    </edge>
    <edge id=":13155810165_5" function="internal">
        <lane id=":13155810165_5_0" index="0" allow="pedestrian bicycle" speed="2.89" length="2.92" width="2.00" shape="1099.03,566.35 1098.13,566.35 1097.64,566.08 1097.57,565.53 1097.91,564.69"/>
    </edge>
    <edge id=":13155810165_6" function="internal">
        <lane id=":13155810165_6_0" index="0" allow="pedestrian bicycle" speed="5.56" length="5.92" width="2.00" shape="1092.48,566.86 1094.19,566.50 1095.36,566.17 1096.44,565.64 1097.91,564.69"/>
    </edge>
    <edge id=":13155810165_7" function="internal">
        <lane id=":13155810165_7_0" index="0" allow="pedestrian bicycle" speed="5.56" length="7.31" width="2.00" shape="1092.48,566.86 1094.48,566.72 1096.03,567.27 1097.14,568.49 1097.79,570.39"/>
    </edge>
    <edge id=":13155810165_8" function="internal">
        <lane id=":13155810165_8_0" index="0" allow="pedestrian bicycle" speed="2.89" length="2.92" width="2.00" shape="1092.48,566.86 1093.31,567.19 1093.66,567.63 1093.52,568.17 1092.89,568.81"/>
    </edge>
    <edge id=":13155810167_0" function="internal">
        <lane id=":13155810167_0_0" index="0" allow="pedestrian bicycle" speed="4.73" length="4.62" width="2.00" shape="1082.04,571.11 1080.69,571.56 1079.80,572.22 1079.37,573.11 1079.38,574.21"/>
    </edge>
    <edge id=":13155810167_1" function="internal">
        <lane id=":13155810167_1_0" index="0" allow="pedestrian bicycle" speed="2.89" length="2.92" width="2.00" shape="1082.04,571.11 1081.19,570.80 1080.84,570.37 1080.97,569.82 1081.58,569.16"/>
    </edge>
    <edge id=":13155810167_2" function="internal">
        <lane id=":13155810167_2_0" index="0" allow="pedestrian bicycle" speed="4.83" length="4.55" width="2.00" shape="1078.03,567.34 1078.43,568.38 1079.16,569.03 1080.21,569.29 1081.58,569.16"/>
    </edge>
    <edge id=":13155810167_3" function="internal">
        <lane id=":13155810167_3_0" index="0" disallow="tram rail_urban rail rail_electric rail_fast ship" speed="8.33" length="7.00" shape="1078.03,567.34 1079.38,574.21"/>
        <lane id=":13155810167_3_1" index="1" disallow="tram rail_urban rail rail_electric rail_fast ship" speed="8.33" length="7.00" shape="1074.89,567.96 1076.24,574.83"/>
    </edge>
    <edge id=":13155810168_0" function="internal">
        <lane id=":13155810168_0_0" index="0" disallow="tram rail_urban rail rail_electric rail_fast ship" speed="8.33" length="7.00" shape="1105.07,594.29 1098.28,596.01"/>
    </edge>
    <edge id=":13155810168_1" function="internal">
        <lane id=":13155810168_1_0" index="0" allow="pedestrian bicycle" speed="5.44" length="6.26" width="2.00" shape="1105.07,594.29 1103.07,594.59 1101.55,594.36 1100.52,593.59 1099.97,592.29"/>
    </edge>
    <edge id=":13155810168_2" function="internal">
        <lane id=":13155810168_2_0" index="0" allow="pedestrian bicycle" speed="5.47" length="6.18" width="2.00" shape="1101.93,591.86 1101.92,593.27 1101.31,594.44 1100.10,595.35 1098.28,596.01"/>
    </edge>
    <edge id=":13155810168_3" function="internal">
        <lane id=":13155810168_3_0" index="0" allow="pedestrian bicycle" speed="2.89" length="2.92" width="2.00" shape="1101.93,591.86 1101.60,592.70 1101.17,593.05 1100.62,592.92 1099.97,592.29"/>
    </edge>
    <edge id=":13155810169_0" function="internal">
        <lane id=":13155810169_0_0" index="0" allow="pedestrian bicycle" speed="2.89" length="2.92" width="2.00" shape="1103.79,560.69 1104.69,560.68 1105.18,560.95 1105.25,561.51 1104.91,562.34"/>
    </edge>
    <edge id=":13155810170_0" function="internal">
        <lane id=":13155810170_0_0" index="0" allow="pedestrian bicycle" speed="4.81" length="4.54" width="2.00" shape="982.28,601.08 981.88,600.04 981.15,599.38 980.11,599.12 978.74,599.25"/>
    </edge>
    <edge id=":13155810170_1" function="internal">
        <lane id=":13155810170_1_0" index="0" disallow="tram rail_urban rail rail_electric rail_fast ship" speed="8.33" length="7.00" shape="982.28,601.08 980.95,594.21"/>
        <lane id=":13155810170_1_1" index="1" disallow="tram rail_urban rail rail_electric rail_fast ship" speed="8.33" length="7.00" shape="985.42,600.48 984.09,593.60"/>
    </edge>
    <edge id=":13155810170_3" function="internal">
        <lane id=":13155810170_3_0" index="0" allow="pedestrian bicycle" speed="4.72" length="4.58" width="2.00" shape="978.32,597.30 979.65,596.86 980.53,596.19 980.96,595.31 980.95,594.21"/>
    </edge>
    <edge id=":13155810170_4" function="internal">
        <lane id=":13155810170_4_0" index="0" allow="pedestrian bicycle" speed="2.89" length="2.92" width="2.00" shape="978.32,597.30 979.16,597.63 979.51,598.07 979.37,598.61 978.74,599.25"/>
    </edge>
    <edge id=":13155810171_0" function="internal">
        <lane id=":13155810171_0_0" index="0" allow="pedestrian bicycle" speed="2.89" length="2.92" width="2.00" shape="962.66,602.72 961.82,602.39 961.47,601.96 961.61,601.42 962.24,600.77"/>
    </edge>
    <edge id=":13164132206_0" function="internal">
        <lane id=":13164132206_0_0" index="0" allow="pedestrian bicycle" speed="2.89" length="2.92" width="2.00" shape="1231.50,672.35 1231.13,673.17 1230.68,673.50 1230.15,673.33 1229.53,672.68"/>
    </edge>
    <edge id=":13164132207_0" function="internal">
        <lane id=":13164132207_0_0" index="0" allow="pedestrian bicycle" speed="2.89" length="2.92" width="2.00" shape="1224.99,645.56 1225.36,644.74 1225.81,644.41 1226.35,644.57 1226.96,645.23"/>
    </edge>
    <edge id=":13368460105_0" function="internal">
        <lane id=":13368460105_0_0" index="0" allow="pedestrian delivery bicycle" speed="6.17" length="7.81" shape="1121.49,483.14 1121.64,481.71 1122.61,480.50 1124.43,479.52 1127.07,478.76"/>
    </edge>
    <edge id=":13368460105_1" function="internal">
        <lane id=":13368460105_1_0" index="0" allow="pedestrian delivery bicycle" speed="3.65" length="4.67" shape="1121.49,483.14 1122.07,481.82 1122.79,481.29 1123.65,481.55 1124.64,482.59"/>
    </edge>
    <edge id=":13368460105_2" function="internal">
        <lane id=":13368460105_2_0" index="0" disallow="tram rail_urban rail rail_electric rail_fast ship" speed="11.11" length="9.40" shape="1117.21,477.55 1126.42,475.63"/>
        <lane id=":13368460105_2_1" index="1" disallow="tram rail_urban rail rail_electric rail_fast ship" speed="11.11" length="9.40" shape="1117.86,480.68 1127.07,478.76"/>
    </edge>
    <edge id=":13368460105_4" function="internal">
        <lane id=":13368460105_4_0" index="0" allow="pedestrian delivery bicycle" speed="6.05" length="7.85" shape="1117.86,480.68 1120.62,480.31 1122.67,480.51 1124.01,481.27 1124.64,482.59"/>
    </edge>
    <edge id=":13368460106_0" function="internal">
        <lane id=":13368460106_0_0" index="0" allow="pedestrian delivery bicycle" speed="3.65" length="4.67" shape="1130.24,514.63 1129.66,515.95 1128.94,516.49 1128.09,516.23 1127.09,515.18"/>
    </edge>
    <edge id=":2190601967_0" function="internal">
        <lane id=":2190601967_0_0" index="0" disallow="tram rail_urban rail rail_electric rail_fast ship" speed="7.35" length="11.65" shape="1089.74,598.14 1086.77,599.25 1084.85,601.06 1083.98,603.56 1084.16,606.75"/>
    </edge>
    <edge id=":2190601967_1" function="internal">
        <lane id=":2190601967_1_0" index="0" disallow="tram rail_urban rail rail_electric rail_fast ship" speed="8.33" length="13.28" shape="1089.74,598.14 1086.64,599.07 1084.11,600.21 1081.29,601.46 1077.33,602.71"/>
        <lane id=":2190601967_1_1" index="1" disallow="tram rail_urban rail rail_electric rail_fast ship" speed="8.33" length="13.28" shape="1089.74,598.14 1086.52,598.59 1083.72,598.66 1080.63,598.84 1076.54,599.61"/>
    </edge>
    <edge id=":2190601967_3" function="internal">
        <lane id=":2190601967_3_0" index="0" disallow="tram rail_urban rail rail_electric rail_fast ship" speed="8.33" length="12.70" shape="1083.28,594.10 1083.80,598.01 1083.81,600.92 1083.78,603.58 1084.16,606.75"/>
    </edge>
    <edge id=":2190601967_4" function="internal">
        <lane id=":2190601967_4_0" index="0" disallow="tram rail_urban rail rail_electric rail_fast ship" speed="5.87" length="6.83" shape="1080.14,594.72 1080.20,596.44 1079.61,597.83 1078.39,598.89 1076.54,599.61"/>
    </edge>
    <edge id=":2496228891_0" function="internal">
        <lane id=":2496228891_0_0" index="0" disallow="tram rail_urban rail rail_electric rail_fast ship" speed="8.33" length="13.40" shape="967.36,523.86 966.82,519.70 966.80,516.58 966.86,513.76 966.56,510.51"/>
    </edge>
    <edge id=":2496228891_1" function="internal">
        <lane id=":2496228891_1_0" index="0" disallow="tram rail_urban rail rail_electric rail_fast ship" speed="6.38" length="8.13" shape="970.50,523.25 970.39,521.05 970.99,519.29 972.30,517.97 974.33,517.10"/>
    </edge>
    <edge id=":2496228891_2" function="internal">
        <lane id=":2496228891_2_0" index="0" disallow="tram rail_urban rail rail_electric rail_fast ship" speed="7.66" length="11.49" shape="961.16,519.37 963.96,518.02 965.79,516.10 966.65,513.59 966.56,510.51"/>
    </edge>
    <edge id=":2496228891_3" function="internal">
        <lane id=":2496228891_3_0" index="0" disallow="tram rail_urban rail rail_electric rail_fast ship" speed="8.33" length="13.42" shape="961.16,519.37 964.18,518.13 966.68,516.78 969.49,515.38 973.48,514.01"/>
        <lane id=":2496228891_3_1" index="1" disallow="tram rail_urban rail rail_electric rail_fast ship" speed="8.33" length="13.42" shape="961.16,519.37 964.32,518.61 967.11,518.32 970.22,517.98 974.33,517.10"/>
    </edge>
    <edge id=":2496228894_0" function="internal">
        <lane id=":2496228894_0_0" index="0" disallow="tram rail_urban rail rail_electric rail_fast ship" speed="6.75" length="10.17" shape="1060.45,483.57 1061.27,485.93 1062.84,487.42 1065.17,488.02 1068.26,487.74"/>
    </edge>
    <edge id=":2496228894_1" function="internal">
        <lane id=":2496228894_1_0" index="0" disallow="tram rail_urban rail rail_electric rail_fast ship" speed="8.33" length="14.52" shape="1060.45,483.57 1061.22,486.82 1062.25,489.70 1063.40,492.99 1064.50,497.46"/>
        <lane id=":2496228894_1_1" index="1" disallow="tram rail_urban rail rail_electric rail_fast ship" speed="8.33" length="14.52" shape="1060.45,483.57 1060.73,486.91 1060.68,489.99 1060.75,493.48 1061.36,498.06"/>
    </edge>
    <edge id=":2496228894_3" function="internal">
        <lane id=":2496228894_3_0" index="0" disallow="tram rail_urban rail rail_electric rail_fast ship" speed="9.72" length="13.29" shape="1055.23,490.81 1068.26,487.74"/>
        <lane id=":2496228894_3_1" index="1" disallow="tram rail_urban rail rail_electric rail_fast ship" speed="9.72" length="13.29" shape="1056.06,493.90 1068.91,490.87"/>
    </edge>
    <edge id=":2496228894_5" function="internal">
        <lane id=":2496228894_5_0" index="0" disallow="tram rail_urban rail rail_electric rail_fast ship" speed="5.95" length="7.78" shape="1056.06,493.90 1058.00,493.73 1059.52,494.37 1060.64,495.81 1061.36,498.06"/>
    </edge>
    <edge id=":2496228905_0" function="internal">
        <lane id=":2496228905_0_0" index="0" disallow="tram rail_urban rail rail_electric rail_fast ship" speed="6.37" length="9.04" shape="945.78,412.06 944.92,409.71 943.52,408.26 941.58,407.69 939.10,408.02"/>
    </edge>
    <edge id=":2496228905_1" function="internal">
        <lane id=":2496228905_1_0" index="0" disallow="tram rail_urban rail rail_electric rail_fast ship" speed="8.33" length="14.64" shape="945.78,412.06 942.97,397.69"/>
    </edge>
    <edge id=":2496228905_2" function="internal">
        <lane id=":2496228905_2_0" index="0" disallow="tram rail_urban rail rail_electric rail_fast ship" speed="11.11" length="11.66" shape="950.33,404.98 939.10,408.02"/>
        <lane id=":2496228905_2_1" index="1" disallow="tram rail_urban rail rail_electric rail_fast ship" speed="11.11" length="11.66" shape="949.52,401.88 938.24,404.94"/>
    </edge>
    <edge id=":2496228905_4" function="internal">
        <lane id=":2496228905_4_0" index="0" disallow="tram rail_urban rail rail_electric rail_fast ship" speed="6.34" length="9.04" shape="949.52,401.88 947.03,402.16 945.11,401.56 943.75,400.07 942.97,397.69"/>
    </edge>
    <edge id=":2496228911_0" function="internal">
        <lane id=":2496228911_0_0" index="0" disallow="tram rail_urban rail rail_electric rail_fast ship" speed="6.73" length="9.08" shape="1049.67,379.11 1047.36,380.03 1045.82,381.46 1045.07,383.39 1045.11,385.82"/>
    </edge>
    <edge id=":2496228911_1" function="internal">
        <lane id=":2496228911_1_0" index="0" disallow="tram rail_urban rail rail_electric rail_fast ship" speed="11.11" length="11.02" shape="1049.67,379.11 1039.01,381.83"/>
        <lane id=":2496228911_1_1" index="1" disallow="tram rail_urban rail rail_electric rail_fast ship" speed="11.11" length="11.02" shape="1048.90,376.00 1038.20,378.73"/>
    </edge>
    <edge id=":2496228911_3" function="internal">
        <lane id=":2496228911_3_0" index="0" disallow="tram rail_urban rail rail_electric rail_fast ship" speed="8.33" length="13.98" shape="1042.68,372.05 1045.11,385.82"/>
    </edge>
    <edge id=":2496228911_4" function="internal">
        <lane id=":2496228911_4_0" index="0" disallow="tram rail_urban rail rail_electric rail_fast ship" speed="6.66" length="9.05" shape="1042.68,372.05 1042.79,374.43 1042.07,376.34 1040.55,377.77 1038.20,378.73"/>
    </edge>
    <edge id=":2496347198_0" function="internal">
        <lane id=":2496347198_0_0" index="0" disallow="tram rail_urban rail rail_electric rail_fast ship" speed="6.34" length="8.94" shape="1193.68,577.46 1192.89,575.19 1191.52,573.77 1189.58,573.20 1187.06,573.49"/>
    </edge>
    <edge id=":2496347198_1" function="internal">
        <lane id=":2496347198_1_0" index="0" disallow="tram rail_urban rail rail_electric rail_fast ship" speed="8.33" length="11.08" shape="1193.68,577.46 1191.37,566.63"/>
    </edge>
    <edge id=":2496347198_2" function="internal">
        <lane id=":2496347198_2_0" index="0" disallow="tram rail_urban rail rail_electric rail_fast ship" speed="8.33" length="11.00" shape="1197.70,570.71 1187.06,573.49"/>
    </edge>
    <edge id=":2496347198_3" function="internal">
        <lane id=":2496347198_3_0" index="0" disallow="tram rail_urban rail rail_electric rail_fast ship" speed="6.22" length="8.80" shape="1197.70,570.71 1195.27,571.00 1193.40,570.42 1192.10,568.96 1191.37,566.63"/>
    </edge>
    <edge id=":3461594219_0" function="internal">
        <lane id=":3461594219_0_0" index="0" disallow="tram rail_urban rail rail_electric rail_fast ship" speed="6.59" length="8.98" shape="1307.88,541.94 1305.60,542.86 1304.12,544.28 1303.45,546.21 1303.59,548.63"/>
    </edge>
    <edge id=":3461594219_1" function="internal">
        <lane id=":3461594219_1_0" index="0" disallow="tram rail_urban rail rail_electric rail_fast ship" speed="8.33" length="11.00" shape="1307.88,541.94 1297.18,544.47"/>
    </edge>
    <edge id=":3461594219_2" function="internal">
        <lane id=":3461594219_2_0" index="0" disallow="tram rail_urban rail rail_electric rail_fast ship" speed="8.33" length="11.00" shape="1301.55,537.82 1303.59,548.63"/>
    </edge>