<additional xmlns:xsi="http://www.w3.org/2001/XMLSchema-instance" xsi:noNamespaceSchemaLocation="http://sumo.dlr.de/xsd/additional_file.xsd">
    
    <poi id="RSU_Visual" type="infrastructure" color="0,255,255" x="1000" y="650" layer="105" width="30" height="30" imgFile="antenna.png"/>

</additional>