<?xml version="1.0" encoding="UTF-8"?>

<!-- generated on 2026-01-29 12:21:18 by Eclipse SUMO polyconvert Version 1.18.0
<configuration xmlns:xsi="http://www.w3.org/2001/XMLSchema-instance" xsi:noNamespaceSchemaLocation="http://sumo.dlr.de/xsd/polyconvertConfiguration.xsd">

    <input>
        <net-file value="examen.net.xml"/>
        <osm-files value="map.osm"/>
        <type-file value="/usr/share/sumo/data/typemap/osmPolyconvert.typ.xml"/>
    </input>

    <output>
        <output-file value="examen.poly.xml"/>
    </output>

</configuration>
-->

<additional xmlns:xsi="http://www.w3.org/2001/XMLSchema-instance" xsi:noNamespaceSchemaLocation="http://sumo.dlr.de/xsd/additional_file.xsd">
    <location netOffset="-720791.05,321007.66" convBoundary="-0.00,-45.97,1891.01,1066.64" origBoundary="-79.013689,-2.902873,-78.996677,-2.892817" projParameter="+proj=utm +zone=17 +ellps=WGS84 +datum=WGS84 +units=m +no_defs"/>

    <poly id="1019278011" type="building" color="255,230,230" fill="1" layer="-1.00" shape="1190.503728,541.619280 1187.041278,520.379026 1206.661382,516.418121 1214.058706,536.711336 1190.503728,541.619280"/>
    <poly id="1043828746" type="building" color="255,230,230" fill="1" layer="-1.00" shape="1230.855614,628.126243 1228.870897,618.795057 1283.085279,608.181377 1284.555101,615.600084 1284.902945,617.369079 1230.855614,628.126243"/>
    <poly id="1043828747" type="building" color="255,230,230" fill="1" layer="-1.00" shape="1249.248371,665.974510 1244.555785,640.810098 1233.438392,642.389160 1238.543532,668.183267 1249.248371,665.974510"/>
    <poly id="1081353721" type="amenity" color="237,199,199" fill="1" layer="-1.00" shape="1047.460126,582.981510 1048.683438,583.034656 1049.829551,583.452918 1050.798326,584.203295 1051.478426,585.208561 1051.825196,586.369255 1051.793978,587.585914 1051.395680,588.736860 1050.652326,589.700393 1049.652742,590.398936 1048.485771,590.765973 1047.240278,590.746047 1046.049724,590.349982 1045.058708,589.599644 1044.345228,588.583377 1043.987280,587.389523 1044.018459,586.150744 1044.450079,584.977619 1045.215653,584.002987 1046.259718,583.304365 1047.460126,582.981510"/>
    <poly id="1081353721#1" type="water" color="181,209,209" fill="1" layer="-4.00" shape="1047.460126,582.981510 1048.683438,583.034656 1049.829551,583.452918 1050.798326,584.203295 1051.478426,585.208561 1051.825196,586.369255 1051.793978,587.585914 1051.395680,588.736860 1050.652326,589.700393 1049.652742,590.398936 1048.485771,590.765973 1047.240278,590.746047 1046.049724,590.349982 1045.058708,589.599644 1044.345228,588.583377 1043.987280,587.389523 1044.018459,586.150744 1044.450079,584.977619 1045.215653,584.002987 1046.259718,583.304365 1047.460126,582.981510"/>
    <poly id="1081353723" type="building" color="255,230,230" fill="1" layer="-1.00" shape="865.773810,548.406982 875.509008,595.516642 959.058060,578.469845 974.298330,575.368321 971.303708,560.862825 970.978479,559.303932 967.591322,542.907861 966.839926,539.303612 964.563067,528.247584 949.267242,531.371328 865.773810,548.406982"/>
    <poly id="1081353723#1" type="historic" color="128,255,128" fill="1" layer="-1.00" shape="865.773810,548.406982 875.509008,595.516642 959.058060,578.469845 974.298330,575.368321 971.303708,560.862825 970.978479,559.303932 967.591322,542.907861 966.839926,539.303612 964.563067,528.247584 949.267242,531.371328 865.773810,548.406982"/>
    <poly id="1081353724" type="man_made" color="255,230,230" fill="1" layer="-1.00" shape="959.058060,578.469845 956.007976,564.041867 971.303708,560.862825 974.298330,575.368321 959.058060,578.469845"/>
    <poly id="1081353725" type="man_made" color="255,230,230" fill="1" layer="-1.00" shape="952.317756,546.042625 949.267242,531.371328 964.563067,528.247584 967.591322,542.907861 952.317756,546.042625"/>
    <poly id="1081353729" type="building" color="255,230,230" fill="1" layer="-1.00" shape="972.038160,580.105997 981.708841,622.128173 916.628595,638.191302 913.102360,624.903347 928.396891,621.038596 924.685918,603.879955 908.812306,607.270144 912.612452,624.550289 916.006102,638.325118 901.601023,642.099820 899.770888,632.126891 897.868036,618.747600 895.469669,601.829971 895.129895,598.324539 899.754151,597.343117 900.829220,595.306179 972.038160,580.105997"/>
    <poly id="1081353730" type="building" color="255,230,230" fill="1" layer="-1.00" shape="945.728312,618.254141 941.414961,600.023735 964.902663,594.806289 968.258967,612.629160 945.728312,618.254141"/>
    <poly id="1081353731" type="building" color="255,230,230" fill="1" layer="-1.00" shape="877.497043,625.707029 891.109540,613.882020 897.868036,618.747600 899.770888,632.126891 901.601023,642.099820 881.570507,646.647561 877.497043,625.707029"/>
    <poly id="1081353732" type="building" color="255,230,230" fill="1" layer="-1.00" shape="1078.928489,563.084363 1080.598267,570.392110 1086.347430,595.665243 1100.964281,592.166641 1112.868951,589.314296 1106.887798,564.915313 1114.268795,563.331782 1111.906897,554.510027 1105.826956,556.091266 1078.928489,563.084363"/>
    <poly id="1081353733" type="building" color="255,230,230" fill="1" layer="-1.00" shape="1106.350493,689.164810 1123.991120,685.141064 1148.889555,679.036301 1145.283269,664.509751 1151.696842,662.938986 1153.253588,669.207291 1158.606949,690.731774 1109.543730,702.785162 1106.967866,692.437496 1106.350493,689.164810"/>
    <poly id="1081353733#1" type="tourism" color="207,245,201" fill="1" layer="-2.00" shape="1106.350493,689.164810 1123.991120,685.141064 1148.889555,679.036301 1145.283269,664.509751 1151.696842,662.938986 1153.253588,669.207291 1158.606949,690.731774 1109.543730,702.785162 1106.967866,692.437496 1106.350493,689.164810"/>
    <poly id="1081353735" type="building" color="255,230,230" fill="1" layer="-1.00" shape="1229.142757,741.516924 1275.868590,734.533116 1279.651235,735.543975 1275.943060,720.000072 1225.972449,728.294686 1229.142757,741.516924"/>
    <poly id="1081353737" type="amenity" color="237,199,199" fill="1" layer="-1.00" shape="899.266806,503.687616 894.283309,483.788330 914.757685,478.719966 919.752307,498.619233 899.266806,503.687616"/>
    <poly id="1081353737#1" type="building" color="255,230,230" fill="1" layer="-1.00" shape="899.266806,503.687616 894.283309,483.788330 914.757685,478.719966 919.752307,498.619233 899.266806,503.687616"/>
    <poly id="1081353737#2" type="leisure" color="207,245,201" fill="1" layer="-2.00" shape="899.266806,503.687616 894.283309,483.788330 914.757685,478.719966 919.752307,498.619233 899.266806,503.687616"/>
    <poly id="1081353738" type="amenity" color="237,199,199" fill="1" layer="-1.00" shape="906.450321,491.000170 906.750856,491.165542 907.007086,491.430531 907.152231,491.762077 907.175114,492.127018 907.086776,492.481094 906.876020,492.780086 906.576147,492.990755 906.231618,493.101962 905.864616,493.080488 905.519659,492.948375 905.252348,492.705525 905.073862,492.385098 905.006537,492.042355 905.061534,491.699398 905.216690,491.400503 905.460904,491.156753 905.760874,491.001384 906.105500,490.945477 906.450321,491.000170"/>
    <poly id="1081353738#1" type="water" color="181,209,209" fill="1" layer="-4.00" shape="906.450321,491.000170 906.750856,491.165542 907.007086,491.430531 907.152231,491.762077 907.175114,492.127018 907.086776,492.481094 906.876020,492.780086 906.576147,492.990755 906.231618,493.101962 905.864616,493.080488 905.519659,492.948375 905.252348,492.705525 905.073862,492.385098 905.006537,492.042355 905.061534,491.699398 905.216690,491.400503 905.460904,491.156753 905.760874,491.001384 906.105500,490.945477 906.450321,491.000170"/>
    <poly id="1081353740" type="school" color="237,199,199" fill="1" layer="-2.00" shape="1220.127456,453.097699 1274.736031,439.054662 1276.151487,434.561782 1262.593550,357.519231 1250.133108,360.494248 1235.771945,363.937138 1242.148514,391.830407 1208.180568,400.472918 1216.888951,439.046083 1220.127456,453.097699"/>
    <poly id="1081357981" type="amenity" color="237,199,199" fill="1" layer="-1.00" shape="1105.222377,478.041589 1099.792095,450.732847 1086.855571,442.272592 1102.049776,419.351519 1117.691726,429.642970 1113.156465,436.950595 1105.560765,449.207454 1110.757331,476.406008 1107.878624,477.207404 1105.222377,478.041589"/>
    <poly id="1081357981#1" type="building" color="255,230,230" fill="1" layer="-1.00" shape="1105.222377,478.041589 1099.792095,450.732847 1086.855571,442.272592 1102.049776,419.351519 1117.691726,429.642970 1113.156465,436.950595 1105.560765,449.207454 1110.757331,476.406008 1107.878624,477.207404 1105.222377,478.041589"/>
    <poly id="1081357982" type="amenity" color="237,199,199" fill="1" layer="-1.00" shape="1062.720255,445.975999 1084.228671,440.828355 1086.855571,442.272592 1099.792095,450.732847 1105.222377,478.041589 1078.109881,483.464548 1069.818690,479.674503 1062.720255,445.975999"/>
    <poly id="1081357982#1" type="building" color="255,230,230" fill="1" layer="-1.00" shape="1062.720255,445.975999 1084.228671,440.828355 1086.855571,442.272592 1099.792095,450.732847 1105.222377,478.041589 1078.109881,483.464548 1069.818690,479.674503 1062.720255,445.975999"/>
    <poly id="1138341270" type="building" color="255,230,230" fill="1" layer="-1.00" shape="988.895509,762.843446 1009.795138,759.267452 1004.646063,740.065227 985.648973,744.201936 988.895509,762.843446"/>
    <poly id="1138341733" type="building" color="255,230,230" fill="1" layer="-1.00" shape="969.006490,651.935215 966.119882,635.615682 980.470628,632.559969 983.599745,635.031908 989.315636,660.371453 977.845875,663.919796 974.498081,650.930145 969.006490,651.935215"/>
    <poly id="1148692920" type="building" color="255,230,230" fill="1" layer="-1.00" shape="1164.396420,391.834807 1161.519053,374.475604 1177.192659,371.185250 1179.656794,381.223430 1169.174095,383.265905 1170.621559,390.618285 1164.396420,391.834807"/>
    <poly id="1148692922" type="parking" color="184,184,179" fill="1" layer="-1.00" shape="1188.545716,402.365632 1243.846946,390.157343 1235.771945,363.937138 1220.335643,369.372733 1221.132272,373.397187 1206.737340,376.607871 1208.199906,386.216477 1185.557005,391.233431 1186.833943,396.473644 1187.102464,397.402214 1188.545716,402.365632"/>
    <poly id="1148692923" type="building" color="255,230,230" fill="1" layer="-1.00" shape="1172.554439,433.616351 1170.432086,421.907500 1181.649399,420.250834 1183.404653,431.882913 1172.554439,433.616351"/>
    <poly id="1148692924" type="building" color="255,230,230" fill="1" layer="-1.00" shape="1170.432086,421.907500 1168.433770,411.171715 1177.415587,409.319910 1204.883490,403.652967 1206.726265,414.466448 1181.649399,420.250834 1170.432086,421.907500"/>
    <poly id="1148692925" type="building" color="255,230,230" fill="1" layer="-1.00" shape="1168.433770,411.171715 1167.167602,405.732403 1176.049162,403.781234 1177.415587,409.319910 1168.433770,411.171715"/>
    <poly id="1148692926" type="parking" color="184,184,179" fill="1" layer="-1.00" shape="1145.343007,521.702307 1146.016803,525.439416 1147.903988,536.219637 1155.685738,534.878717 1158.089420,548.478341 1182.955441,542.926611 1177.934135,514.223571 1158.947647,518.050634 1145.343007,521.702307"/>
    <poly id="1148695164" type="building" color="255,230,230" fill="1" layer="-1.00" shape="1270.169949,548.689988 1268.220439,540.409444 1287.595267,536.083977 1284.731625,520.206786 1294.302939,518.420297 1297.902694,541.839150 1270.169949,548.689988"/>
    <poly id="1148695165" type="building" color="255,230,230" fill="1" layer="-1.00" shape="1226.655680,579.635314 1224.853037,572.659598 1224.035671,569.486804 1244.909087,563.665599 1250.930404,585.598131 1238.234717,587.611321 1237.326032,583.100421 1234.313820,583.868875 1232.335313,584.370065 1230.758874,579.550661 1226.890763,580.519704 1226.655680,579.635314"/>
    <poly id="1148695166" type="building" color="255,230,230" fill="1" layer="-1.00" shape="1287.073226,441.853214 1298.843744,438.602914 1302.199605,449.834013 1298.220960,451.179298 1298.773630,455.591286 1289.869295,457.243881 1287.073226,441.853214"/>
    <poly id="1148695176" type="building" color="255,230,230" fill="1" layer="-1.00" shape="1115.219692,320.506789 1110.154018,317.098167 1089.745131,321.458629 1087.829631,313.543014 1111.294751,308.159638 1138.761335,301.762736 1141.042337,315.152431 1119.321294,319.526273 1115.219692,320.506789"/>
    <poly id="1151347716" type="building" color="255,230,230" fill="1" layer="-1.00" shape="1213.548199,335.496703 1205.176527,298.692557 1228.295681,292.601921 1251.337093,286.566717 1258.688035,324.677757 1213.548199,335.496703"/>
    <poly id="1151347717" type="leisure" color="207,245,201" fill="1" layer="-2.00" shape="1221.400577,323.770256 1216.416676,303.682932 1242.015305,297.410959 1246.999231,317.509344 1221.400577,323.770256"/>
    <poly id="1151347718" type="leisure" color="207,245,201" fill="1" layer="-2.00" shape="1170.203506,336.424778 1202.104647,328.670717 1194.958863,299.683866 1163.057732,307.437931 1170.203506,336.424778"/>
    <poly id="1151350082" type="parking" color="184,184,179" fill="1" layer="-1.00" shape="987.394731,352.629265 998.655417,350.353175 995.754125,338.336025 1016.271968,332.703485 1014.522749,324.488958 1014.658734,319.622301 997.527905,322.627643 999.819687,329.525069 984.491990,333.478393 987.394731,352.629265"/>
    <poly id="1151353334" type="building" color="255,230,230" fill="1" layer="-1.00" shape="831.028896,570.510767 829.066860,561.411816 851.253510,556.207739 855.168575,569.284865 845.342406,571.580523 836.449917,573.642276 831.028896,570.510767"/>
    <poly id="1151353335" type="building" color="255,230,230" fill="1" layer="-1.00" shape="829.066860,561.411816 814.071146,564.457590 816.691933,575.070606 831.028896,570.510767 829.066860,561.411816"/>
    <poly id="1151353336" type="building" color="255,230,230" fill="1" layer="-1.00" shape="794.112935,597.451585 788.771315,569.921516 804.977836,566.143654 809.878732,589.670769 810.831998,594.247944 794.112935,597.451585"/>
    <poly id="1151353337" type="building" color="255,230,230" fill="1" layer="-1.00" shape="804.977836,566.143654 814.071146,564.457590 816.691933,575.070606 819.895442,588.226402 809.878732,589.670769 804.977836,566.143654"/>
    <poly id="1151354066" type="building" color="255,230,230" fill="1" layer="-1.00" shape="991.370961,627.707542 1024.116461,619.476516 1028.522758,633.647729 1016.087008,638.027282 1022.308102,666.086710 1000.031540,670.771145 991.370961,627.707542"/>
    <poly id="1151354067" type="building" color="255,230,230" fill="1" layer="-1.00" shape="1003.824859,690.484517 1000.031540,670.771145 1044.308863,662.652540 1047.647122,676.538075 1044.690433,677.262183 1044.762704,680.414168 1003.824859,690.484517"/>
    <poly id="1151354068" type="building" color="255,230,230" fill="1" layer="-1.00" shape="976.500923,740.070521 999.642318,733.935712 1004.170008,728.629984 1000.685171,713.594465 975.415203,717.100734 971.801218,717.140275 973.492654,730.442523 976.500923,740.070521"/>
    <poly id="1151354069" type="building" color="255,230,230" fill="1" layer="-1.00" shape="975.415203,717.100734 973.334094,703.533731 998.057206,698.911359 1000.685171,713.594465 975.415203,717.100734"/>
    <poly id="1151354070" type="building" color="255,230,230" fill="1" layer="-1.00" shape="973.334094,703.533731 967.420209,704.694384 966.684923,697.606194 964.745081,688.485078 975.238356,686.121881 982.452419,684.461237 994.423640,681.509255 998.057206,698.911359 973.334094,703.533731"/>
    <poly id="1151354071" type="building" color="255,230,230" fill="1" layer="-1.00" shape="982.452419,684.461237 977.845875,663.919796 989.315636,660.371453 994.423640,681.509255 982.452419,684.461237"/>
    <poly id="1151354072" type="building" color="255,230,230" fill="1" layer="-1.00" shape="966.119882,635.615682 948.035228,640.071530 950.865458,649.633480 961.854977,689.131647 964.745081,688.485078 975.238356,686.121881 969.006490,651.935215 966.119882,635.615682"/>
    <poly id="1151354073" type="building" color="255,230,230" fill="1" layer="-1.00" shape="881.976720,656.313314 894.270709,653.526674 897.216689,665.676465 895.560433,666.044361 899.017484,684.254152 888.088873,685.678005 881.976720,656.313314"/>
    <poly id="1151354074" type="building" color="255,230,230" fill="1" layer="-1.00" shape="894.270709,653.526674 904.785167,650.566202 907.999725,663.677745 897.216689,665.676465 894.270709,653.526674"/>
    <poly id="1151354075" type="building" color="255,230,230" fill="1" layer="-1.00" shape="904.785167,650.566202 925.026287,645.630985 930.577236,665.717299 933.575025,675.710295 913.502063,681.419416 907.999725,663.677745 904.785167,650.566202"/>
    <poly id="1151354076" type="building" color="255,230,230" fill="1" layer="-1.00" shape="925.026287,645.630985 933.662437,643.237878 935.282169,653.708881 941.884505,651.982955 943.345909,660.950071 930.577236,665.717299 925.026287,645.630985"/>
    <poly id="1151355666" type="building" color="255,230,230" fill="1" layer="-1.00" shape="874.007757,766.153445 858.734107,769.254998 857.166493,763.119438 855.262940,755.657266 871.504215,752.653551 874.007757,766.153445"/>
    <poly id="1151355667" type="building" color="255,230,230" fill="1" layer="-1.00" shape="858.734107,769.254998 849.374965,771.549824 848.440790,765.180890 857.166493,763.119438 858.734107,769.254998"/>
    <poly id="1151355668" type="building" color="255,230,230" fill="1" layer="-1.00" shape="849.374965,771.549824 842.049873,773.310191 840.406339,761.943371 839.719628,757.177706 847.056286,755.671699 848.440790,765.180890 849.374965,771.549824"/>
    <poly id="1151355669" type="building" color="255,230,230" fill="1" layer="-1.00" shape="842.049873,773.310191 833.669458,775.691774 830.812081,763.331687 840.406339,761.943371 842.049873,773.310191"/>
    <poly id="1151355670" type="building" color="255,230,230" fill="1" layer="-1.00" shape="824.310783,778.252038 833.669458,775.691774 830.812081,763.331687 829.928048,760.181134 825.604010,761.150960 824.009514,758.698438 817.386704,761.430851 822.166539,773.035475 824.310783,778.252038"/>
    <poly id="1151355672" type="building" color="255,230,230" fill="1" layer="-1.00" shape="865.136631,729.792608 862.228367,713.793860 884.392518,708.423934 888.482360,726.035369 865.136631,729.792608"/>
    <poly id="1151355673" type="building" color="255,230,230" fill="1" layer="-1.00" shape="862.228367,713.793860 858.150232,696.514206 866.132827,695.560061 881.106302,692.503269 884.392518,708.423934 862.228367,713.793860"/>
    <poly id="1151355674" type="building" color="255,230,230" fill="1" layer="-1.00" shape="893.682610,711.128357 890.913562,698.414192 916.395714,695.427387 917.327122,706.541082 893.682610,711.128357"/>
    <poly id="1151355676" type="building" color="255,230,230" fill="1" layer="-1.00" shape="890.913562,698.414192 888.088873,685.678005 899.017484,684.254152 913.502063,681.419416 916.395714,695.427387 890.913562,698.414192"/>
    <poly id="1151355677" type="building" color="255,230,230" fill="1" layer="-1.00" shape="895.935560,721.244323 893.682610,711.128357 917.327122,706.541082 920.648347,717.075450 907.541568,719.288398 895.935560,721.244323"/>
    <poly id="1151355678" type="building" color="255,230,230" fill="1" layer="-1.00" shape="900.454807,749.063414 899.408552,742.196975 924.306280,735.694111 925.375419,742.925493 900.454807,749.063414"/>
    <poly id="1151355679" type="building" color="255,230,230" fill="1" layer="-1.00" shape="960.004573,781.386667 953.927563,753.039427 968.710374,749.053921 975.687088,776.813397 975.888554,777.554065 960.004573,781.386667"/>
    <poly id="1151355680" type="building" color="255,230,230" fill="1" layer="-1.00" shape="975.687088,776.813397 990.490703,772.009411 988.895509,762.843446 985.648973,744.201936 968.710374,749.053921 975.687088,776.813397"/>
    <poly id="1151355681" type="building" color="255,230,230" fill="1" layer="-1.00" shape="935.755563,758.424458 953.927563,753.039427 960.004573,781.386667 942.519565,785.376923 935.755563,758.424458"/>
    <poly id="1151355682" type="building" color="255,230,230" fill="1" layer="-1.00" shape="935.755563,758.424458 927.185891,760.684722 929.496233,771.818112 933.006663,788.766969 935.415121,798.783124 944.316610,795.504754 942.519565,785.376923 935.755563,758.424458"/>
    <poly id="1151355683" type="building" color="255,230,230" fill="1" layer="-1.00" shape="927.185891,760.684722 907.925286,766.735265 905.176034,771.595456 907.535854,785.571187 916.429549,784.184098 916.058918,775.779124 929.496233,771.818112 927.185891,760.684722"/>
    <poly id="1159044198" type="building" color="255,230,230" fill="1" layer="-1.00" shape="1035.112921,378.823832 1034.316279,374.788321 1039.395848,373.463224 1040.270331,377.498598 1035.112921,378.823832"/>
    <poly id="1159044199" type="building" color="255,230,230" fill="1" layer="-1.00" shape="1034.316279,374.788321 1031.093144,375.756225 1028.201119,362.688353 1036.203208,360.185741 1039.395848,373.463224 1034.316279,374.788321"/>
    <poly id="1159044200" type="building" color="255,230,230" fill="1" layer="-1.00" shape="1028.201119,362.688353 1024.602211,358.657780 1023.800092,351.514407 1025.078455,351.257773 1034.238223,349.427783 1034.349385,349.405467 1036.203208,360.185741 1028.201119,362.688353"/>
    <poly id="1159044201" type="building" color="255,230,230" fill="1" layer="-1.00" shape="1041.065830,349.338329 1036.612755,321.253672 1038.002592,321.151682 1067.292127,314.331304 1072.347627,343.509848 1041.065830,349.338329"/>
    <poly id="1159044202" type="building" color="255,230,230" fill="1" layer="-1.00" shape="1038.002592,321.151682 1034.295313,299.801276 1070.853878,290.977273 1083.346670,287.438152 1084.512833,292.921878 1088.134793,310.025381 1067.292127,314.331304 1038.002592,321.151682"/>
    <poly id="1159044203" type="building" color="255,230,230" fill="1" layer="-1.00" shape="1025.078455,351.257773 1023.627043,341.660216 1032.775456,339.697525 1034.238223,349.427783 1025.078455,351.257773"/>
    <poly id="1159044204" type="building" color="255,230,230" fill="1" layer="-1.00" shape="1032.775456,339.697525 1031.115860,331.858880 1022.366797,333.267866 1023.627043,341.660216 1032.775456,339.697525"/>
    <poly id="1159044205" type="building" color="255,230,230" fill="1" layer="-1.00" shape="1022.366797,333.267866 1021.261159,324.266941 1029.620609,322.626381 1031.115860,331.858880 1022.366797,333.267866"/>
    <poly id="1159044206" type="building" color="255,230,230" fill="1" layer="-1.00" shape="1021.568546,322.010151 1019.985835,313.629430 1028.188921,311.602044 1029.616360,320.215300 1021.568546,322.010151"/>
    <poly id="1159044572" type="parking" color="184,184,179" fill="1" layer="-1.00" shape="995.411195,446.647592 993.012787,436.034180 990.950535,426.869041 1002.832163,423.574337 1013.680166,420.591133 1019.873618,420.325840 1022.903166,429.400795 1020.692018,430.400095 1023.502399,441.311404 1024.924318,446.794679 1014.598217,449.356680 997.224752,453.512682 995.411195,446.647592"/>
    <poly id="1159044574" type="building" color="255,230,230" fill="1" layer="-1.00" shape="1024.924318,446.794679 1023.502399,441.311404 1023.144081,439.907410 1020.692018,430.400095 1022.903166,429.400795 1049.025759,423.868985 1050.599265,439.648893 1024.924318,446.794679"/>
    <poly id="1159044575" type="building" color="255,230,230" fill="1" layer="-1.00" shape="1022.903166,429.400795 1019.873618,420.325840 1019.200117,416.754634 1034.504945,412.436370 1032.100538,404.731758 1036.413307,403.684514 1044.961046,401.612283 1049.025759,423.868985 1022.903166,429.400795"/>
    <poly id="1159044576" type="building" color="255,230,230" fill="1" layer="-1.00" shape="1036.413307,403.684514 1035.047397,398.433401 1032.169376,387.002390 1041.106375,384.962653 1044.961046,401.612283 1036.413307,403.684514"/>
    <poly id="1159074383" type="amenity" color="237,199,199" fill="1" layer="-1.00" shape="1052.330499,456.589828 1050.599265,439.648893 1013.331849,450.110994 1018.138847,464.491638 1042.193262,459.051958 1052.330499,456.589828"/>
    <poly id="1159074383#1" type="building" color="255,230,230" fill="1" layer="-1.00" shape="1052.330499,456.589828 1050.599265,439.648893 1013.331849,450.110994 1018.138847,464.491638 1042.193262,459.051958 1052.330499,456.589828"/>
    <poly id="1159505494" type="building" color="255,230,230" fill="1" layer="-1.00" shape="1134.173151,354.726335 1131.770045,341.458516 1144.865009,338.869494 1146.451043,349.130422 1144.977490,352.207714 1134.173151,354.726335"/>
    <poly id="1159505495" type="building" color="255,230,230" fill="1" layer="-1.00" shape="1121.156162,332.164671 1119.321294,319.526273 1141.042337,315.152431 1143.131994,327.237379 1121.156162,332.164671"/>
    <poly id="1159505496" type="building" color="255,230,230" fill="1" layer="-1.00" shape="1109.407902,360.642884 1107.450287,347.761382 1114.542712,346.499092 1116.111241,359.447641 1109.407902,360.642884"/>
    <poly id="1159505497" type="building" color="255,230,230" fill="1" layer="-1.00" shape="1116.111241,359.447641 1129.705090,355.995059 1127.238447,338.225912 1122.002144,338.954048 1119.422689,339.190857 1119.433161,345.130084 1114.542712,346.499092 1116.111241,359.447641"/>
    <poly id="1159505499" type="building" color="255,230,230" fill="1" layer="-1.00" shape="1109.407902,360.642884 1098.471370,363.869578 1096.393501,352.160653 1095.124587,345.161881 1105.306217,342.655421 1107.450287,347.761382 1109.407902,360.642884"/>
    <poly id="1159505500" type="building" color="255,230,230" fill="1" layer="-1.00" shape="1132.444960,389.977754 1127.840514,364.348682 1150.784290,359.696187 1155.834483,385.855358 1132.444960,389.977754"/>
    <poly id="1159505501" type="building" color="255,230,230" fill="1" layer="-1.00" shape="1132.444960,389.977754 1114.327619,394.798694 1110.256788,369.080203 1127.840514,364.348682 1132.444960,389.977754"/>
    <poly id="1159505502" type="building" color="255,230,230" fill="1" layer="-1.00" shape="1102.461342,400.493415 1115.044922,397.982723 1114.327619,394.798694 1110.256788,369.080203 1096.784226,371.946385 1102.461342,400.493415"/>
    <poly id="1159505503" type="building" color="255,230,230" fill="1" layer="-1.00" shape="1089.700717,403.502120 1084.824604,375.152761 1096.784226,371.946385 1102.461342,400.493415 1095.380755,402.164903 1089.700717,403.502120"/>
    <poly id="1159505504" type="building" color="255,230,230" fill="1" layer="-1.00" shape="1074.398914,377.991449 1084.824604,375.152761 1089.700717,403.502120 1080.087026,406.472097 1076.570524,386.105694 1074.398914,377.991449"/>
    <poly id="1159505505" type="building" color="255,230,230" fill="1" layer="-1.00" shape="1134.895487,404.915558 1132.444960,389.977754 1155.834483,385.855358 1158.681944,398.868015 1134.895487,404.915558"/>
    <poly id="1159505506" type="building" color="255,230,230" fill="1" layer="-1.00" shape="1137.310938,418.880140 1134.895487,404.915558 1158.681944,398.868015 1161.511144,414.136954 1137.310938,418.880140"/>
    <poly id="1159505507" type="building" color="255,230,230" fill="1" layer="-1.00" shape="1165.300528,437.898319 1162.775200,424.686013 1139.117694,428.189515 1141.898977,441.511970 1165.300528,437.898319"/>
    <poly id="1159505508" type="building" color="255,230,230" fill="1" layer="-1.00" shape="1162.775200,424.686013 1161.511144,414.136954 1137.310938,418.880140 1139.117694,428.189515 1162.775200,424.686013"/>
    <poly id="1159505510" type="building" color="255,230,230" fill="1" layer="-1.00" shape="1176.246172,502.912115 1174.884982,494.033295 1163.613075,496.265174 1165.663264,504.888399 1176.246172,502.912115"/>
    <poly id="1159507021" type="building" color="255,230,230" fill="1" layer="-1.00" shape="976.500923,740.070521 964.917559,742.258673 962.255630,733.548048 973.492654,730.442523 976.500923,740.070521"/>
    <poly id="1159507022" type="building" color="255,230,230" fill="1" layer="-1.00" shape="962.255630,733.548048 958.915750,718.733477 944.598101,721.645342 947.793865,736.714547 950.733445,745.225602 964.917559,742.258673 962.255630,733.548048"/>
    <poly id="1159507023" type="building" color="255,230,230" fill="1" layer="-1.00" shape="927.570298,751.636938 950.733445,745.225602 947.793865,736.714547 939.647148,739.195270 937.721174,731.633595 924.138077,734.898085 924.306280,735.694111 925.375419,742.925493 927.570298,751.636938"/>
    <poly id="1159507024" type="building" color="255,230,230" fill="1" layer="-1.00" shape="900.454807,749.063414 901.576762,754.713117 902.804238,757.133105 906.285169,757.315002 927.570298,751.636938 925.375419,742.925493 900.454807,749.063414"/>
    <poly id="1159507027" type="building" color="255,230,230" fill="1" layer="-1.00" shape="824.310783,778.252038 817.141509,780.089549 815.686830,774.938134 822.166539,773.035475 824.310783,778.252038"/>
    <poly id="1164887399" type="building" color="255,230,230" fill="1" layer="-1.00" shape="941.909659,363.139019 938.536556,348.412994 963.255046,341.213600 966.897451,357.310597 941.909659,363.139019"/>
    <poly id="1164887400" type="building" color="255,230,230" fill="1" layer="-1.00" shape="945.767588,381.646723 941.909659,363.139019 966.897451,357.310597 970.899303,375.453068 962.207340,377.713569 955.694799,379.903870 945.767588,381.646723"/>
    <poly id="1164887401" type="building" color="255,230,230" fill="1" layer="-1.00" shape="949.211716,398.816893 947.363885,391.432043 957.023532,389.302560 960.410906,399.505007 951.707860,401.787645 950.004477,400.651462 949.211716,398.816893"/>
    <poly id="1164887402" type="building" color="255,230,230" fill="1" layer="-1.00" shape="947.363885,391.432043 945.767588,381.646723 955.694799,379.903870 957.023532,389.302560 947.363885,391.432043"/>